input/raw/case2383busPsse32.RAW
 0,    100.00, 32, 0, 0, 60.00       / December 17, 2021 23:59:59; Simulator Version 21; BuildDate 2019_9_30
DATE OF CONVERTION (YYYY-MM-DD HH:MM:SS): 2017-08-23 23:02:0
2383 BUSES TEST CASE
    1,'BUS_1       ', 220.0000,1,   1,   1,   1,1.01205003,   3.381700
    2,'BUS_2       ', 220.0000,1,   1,   1,   1,0.99873000,   3.914300
    3,'BUS_3       ', 220.0000,1,   1,   1,   1,0.97643000, -10.801900
    4,'BUS_4       ', 220.0000,1,   1,   1,   1,0.98238999,   0.247500
    5,'BUS_5       ', 220.0000,1,   1,   1,   1,0.99189001,  -6.027500
    6,'BUS_6       ', 400.0000,1,   1,   1,   1,0.98304999,  -2.697200
    7,'BUS_7       ', 220.0000,1,   1,   1,   1,0.97321999,  -7.321500
    8,'BUS_8       ', 400.0000,1,   1,   1,   1,0.99387997,  -2.126300
    9,'BUS_9       ', 400.0000,1,   1,   1,   1,0.98080999,  -4.773400
   10,'BUS_10      ', 220.0000,2,   1,   1,   1,1.00000000,  -5.009600
   11,'BUS_11      ', 220.0000,1,   1,   1,   1,0.98878002,   1.114400
   12,'BUS_12      ', 220.0000,1,   1,   1,   1,0.96845001,  -8.069400
   13,'BUS_13      ', 220.0000,1,   1,   1,   1,0.97643000,  -7.122800
   14,'BUS_14      ', 220.0000,1,   1,   1,   1,0.98215997,   1.579500
   15,'BUS_15      ', 400.0000,1,   1,   1,   1,0.97527999,  -6.154100
   16,'BUS_16      ', 220.0000,2,   1,   1,   1,1.01468003,   3.820100
   17,'BUS_17      ', 220.0000,2,   1,   1,   1,1.00346005,   4.601000
   18,'BUS_18      ', 400.0000,2,   1,   1,   1,1.00000000,  -0.316900
   19,'BUS_19      ', 220.0000,1,   1,   1,   1,0.97539002,  -7.993700
   20,'BUS_20      ', 400.0000,1,   1,   1,   1,0.99860001,  -1.481700
   21,'BUS_21      ', 220.0000,1,   1,   1,   1,0.97314000,  -7.732900
   22,'BUS_22      ', 220.0000,1,   1,   1,   1,0.98008001,  -0.517500
   23,'BUS_23      ', 220.0000,1,   1,   1,   1,0.99902999,  -2.099100
   24,'BUS_24      ', 220.0000,1,   1,   1,   1,1.01382005,  -0.345700
   25,'BUS_25      ', 220.0000,1,   1,   1,   1,1.01375997,   1.448200
   26,'BUS_26      ', 220.0000,1,   1,   1,   1,0.98562002,  -4.158900
   27,'BUS_27      ', 220.0000,1,   1,   1,   1,0.99912000,  -1.613700
   28,'BUS_28      ', 220.0000,1,   1,   1,   1,0.99912000,  -1.613700
   29,'BUS_29      ', 220.0000,2,   1,   1,   1,1.00768006,  -0.159000
   30,'BUS_30      ', 220.0000,2,   1,   1,   1,1.00768006,  -0.159000
   31,'BUS_31      ', 400.0000,2,   1,   1,   1,0.99317002,   2.135300
   32,'BUS_32      ', 400.0000,1,   1,   1,   1,0.99317002,   2.135300
   33,'BUS_33      ', 220.0000,1,   1,   1,   1,0.99426001,  -2.247900
   34,'BUS_34      ', 400.0000,1,   1,   1,   1,1.01452994,  -0.759300
   35,'BUS_35      ', 400.0000,1,   1,   1,   1,1.01452994,  -0.759300
   36,'BUS_36      ', 400.0000,1,   1,   1,   1,0.97043997,  -0.332700
   37,'BUS_37      ', 220.0000,1,   1,   1,   1,0.99157000,  -2.244300
   38,'BUS_38      ', 220.0000,1,   1,   1,   1,0.99157000,  -2.244300
   39,'BUS_39      ', 400.0000,1,   1,   1,   1,0.98971999,   1.899200
   40,'BUS_40      ', 400.0000,1,   1,   1,   1,0.98971999,   1.899200
   41,'BUS_41      ', 220.0000,2,   1,   1,   1,1.01900995,   3.053000
   42,'BUS_42      ', 220.0000,2,   1,   1,   1,1.01900995,   3.053000
   43,'BUS_43      ', 400.0000,2,   1,   1,   1,1.00000000,   3.184900
   44,'BUS_44      ', 400.0000,2,   1,   1,   1,1.00000000,   3.184900
   45,'BUS_45      ', 220.0000,2,   1,   1,   1,0.99769998,  -1.499500
   46,'BUS_46      ', 220.0000,1,   1,   1,   1,0.99769998,  -1.499500
   47,'BUS_47      ', 220.0000,1,   1,   1,   1,0.99786001,  -1.706500
   48,'BUS_48      ', 220.0000,1,   1,   1,   1,0.99794000,  -1.666700
   49,'BUS_49      ', 220.0000,1,   1,   1,   1,0.99794000,  -1.666700
   50,'BUS_50      ', 400.0000,1,   1,   1,   1,1.00258005,   0.750600
   51,'BUS_51      ', 400.0000,1,   1,   1,   1,1.00258005,   0.750600
   52,'BUS_52      ', 220.0000,1,   1,   1,   1,1.00467002,  -0.083300
   53,'BUS_53      ', 220.0000,1,   1,   1,   1,1.00639999,   0.006600
   54,'BUS_54      ', 220.0000,1,   1,   1,   1,1.01408005,   1.486100
   55,'BUS_55      ', 220.0000,1,   1,   1,   1,0.99072999,  -1.029300
   56,'BUS_56      ', 220.0000,1,   1,   1,   1,1.01078999,  -1.388200
   57,'BUS_57      ', 220.0000,1,   1,   1,   1,1.01850998,   0.780400
   58,'BUS_58      ', 220.0000,1,   1,   1,   1,1.01873004,   0.780800
   59,'BUS_59      ', 220.0000,1,   1,   1,   1,0.99520999,   4.741700
   60,'BUS_60      ', 220.0000,1,   1,   1,   1,0.99781001,  -1.317600
   61,'BUS_61      ', 220.0000,1,   1,   1,   1,0.99901998,   6.647900
   62,'BUS_62      ', 220.0000,1,   1,   1,   1,0.99901998,   6.647900
   63,'BUS_63      ', 220.0000,2,   1,   1,   1,1.00000000,   5.142900
   64,'BUS_64      ', 220.0000,2,   1,   1,   1,1.00209999,   5.108400
   65,'BUS_65      ', 220.0000,1,   1,   1,   1,0.99431002,   2.526200
   66,'BUS_66      ', 220.0000,1,   1,   1,   1,1.03731000,  -5.395300
   67,'BUS_67      ', 400.0000,2,   1,   1,   1,1.00000000,  -4.040300
   68,'BUS_68      ', 220.0000,1,   1,   1,   1,1.02180004,  -4.188100
   69,'BUS_69      ', 220.0000,1,   1,   1,   1,0.99805999,   2.392800
   70,'BUS_70      ', 220.0000,1,   1,   1,   1,1.01285994,  -0.633600
   71,'BUS_71      ', 220.0000,1,   1,   1,   1,0.99589002,   1.361000
   72,'BUS_72      ', 220.0000,1,   1,   1,   1,0.99589002,   1.361000
   73,'BUS_73      ', 220.0000,1,   1,   1,   1,1.01698005,   0.064500
   74,'BUS_74      ', 220.0000,1,   1,   1,   1,1.01526999,  -0.703600
   75,'BUS_75      ', 400.0000,1,   1,   1,   1,0.98958999,  -0.687000
   76,'BUS_76      ', 400.0000,1,   1,   1,   1,0.98958999,  -0.687000
   77,'BUS_77      ', 220.0000,1,   1,   1,   1,0.99536002,   0.645600
   78,'BUS_78      ', 220.0000,1,   1,   1,   1,1.00279999,  -2.551400
   79,'BUS_79      ', 220.0000,1,   1,   1,   1,1.00229001,   3.217100
   80,'BUS_80      ', 220.0000,1,   1,   1,   1,1.01910996,   0.830900
   81,'BUS_81      ', 220.0000,1,   1,   1,   1,1.01910996,   0.830900
   82,'BUS_82      ', 220.0000,1,   1,   1,   1,0.99436998,   5.349200
   83,'BUS_83      ', 220.0000,2,   1,   1,   1,1.00000000,   2.169500
   84,'BUS_84      ', 220.0000,2,   1,   1,   1,1.00000000,   2.169500
   85,'BUS_85      ', 220.0000,2,   1,   1,   1,1.00000000,   0.496700
   86,'BUS_86      ', 220.0000,2,   1,   1,   1,1.00000000,   0.496700
   87,'BUS_87      ', 220.0000,1,   1,   1,   1,1.00294006,   1.417300
   88,'BUS_88      ', 220.0000,1,   1,   1,   1,1.00294006,   1.417300
   89,'BUS_89      ', 220.0000,1,   1,   1,   1,0.99457002,   2.244000
   90,'BUS_90      ', 220.0000,1,   1,   1,   1,0.99597001,   1.010200
   91,'BUS_91      ', 220.0000,1,   1,   1,   1,0.99349999,   3.154800
   92,'BUS_92      ', 400.0000,1,   1,   1,   1,0.98967999,  -2.516700
   93,'BUS_93      ', 220.0000,2,   1,   1,   1,1.00108004,   4.175900
   94,'BUS_94      ', 220.0000,1,   1,   1,   1,1.00108004,   4.175900
   95,'BUS_95      ', 220.0000,2,   1,   1,   1,1.00465000,   3.410500
   96,'BUS_96      ', 220.0000,1,   1,   1,   1,1.00465000,   3.410500
   97,'BUS_97      ', 220.0000,2,   1,   1,   1,1.00000000,  -0.562900
   98,'BUS_98      ', 400.0000,1,   1,   1,   1,0.99264002,   0.841200
   99,'BUS_99      ', 400.0000,1,   1,   1,   1,0.99264002,   0.841200
  100,'BUS_100     ', 400.0000,1,   1,   1,   1,0.99444997,  -1.337600
  101,'BUS_101     ', 400.0000,1,   1,   1,   1,0.99444997,  -1.337600
  102,'BUS_102     ', 220.0000,1,   1,   1,   1,0.99619001,   2.231000
  103,'BUS_103     ', 220.0000,2,   1,   1,   1,1.00000000,   0.627400
  104,'BUS_104     ', 220.0000,2,   1,   1,   1,1.00000000,   0.627400
  105,'BUS_105     ', 400.0000,2,   1,   1,   1,1.00000000,  -2.636500
  106,'BUS_106     ', 400.0000,1,   1,   1,   1,1.00000000,  -2.636500
  107,'BUS_107     ', 220.0000,1,   1,   1,   1,1.01110005,  -0.931900
  108,'BUS_108     ', 220.0000,1,   1,   1,   1,1.01242006,  -0.741900
  109,'BUS_109     ', 220.0000,2,   1,   1,   1,1.00000000,   7.468900
  110,'BUS_110     ', 220.0000,2,   1,   1,   1,1.00000000,   7.505100
  111,'BUS_111     ', 220.0000,2,   1,   1,   1,1.00000000,  -0.138500
  112,'BUS_112     ', 220.0000,1,   1,   1,   1,1.00000000,  -0.138500
  113,'BUS_113     ', 220.0000,1,   1,   1,   1,0.99966002, -16.672200
  114,'BUS_114     ', 220.0000,1,   1,   1,   1,1.01277006, -15.397500
  115,'BUS_115     ', 400.0000,1,   1,   1,   1,0.95346999, -12.713200
  116,'BUS_116     ', 400.0000,1,   1,   1,   1,0.95346999, -12.713200
  117,'BUS_117     ', 220.0000,1,   1,   1,   1,0.97873002, -15.368300
  118,'BUS_118     ', 220.0000,1,   1,   1,   1,0.96915001, -23.976500
  119,'BUS_119     ', 220.0000,1,   1,   1,   1,0.96915001, -23.976500
  120,'BUS_120     ', 220.0000,1,   1,   1,   1,0.95631999, -23.195300
  121,'BUS_121     ', 220.0000,1,   1,   1,   1,0.99880999, -17.479200
  122,'BUS_122     ', 220.0000,1,   1,   1,   1,0.99880999, -17.479200
  123,'BUS_123     ', 220.0000,2,   1,   1,   1,1.00000000,  -2.831800
  124,'BUS_124     ', 220.0000,2,   1,   1,   1,1.00000000,  -2.831800
  125,'BUS_125     ', 220.0000,2,   1,   1,   1,1.00000000, -20.630100
  126,'BUS_126     ', 220.0000,1,   1,   1,   1,1.00000000, -20.630100
  127,'BUS_127     ', 400.0000,2,   1,   1,   1,1.00000000, -13.817500
  128,'BUS_128     ', 400.0000,1,   1,   1,   1,1.00000000, -13.817500
  129,'BUS_129     ', 220.0000,1,   1,   1,   1,0.96671999, -19.607800
  130,'BUS_130     ', 220.0000,1,   1,   1,   1,0.95525002, -21.135500
  131,'BUS_131     ', 220.0000,2,   1,   1,   1,1.03657997, -12.082400
  132,'BUS_132     ', 220.0000,3,   1,   1,   1,1.03657997, -12.082400
  133,'BUS_133     ', 400.0000,1,   1,   1,   1,0.99072999, -10.727700
  134,'BUS_134     ', 400.0000,1,   1,   1,   1,0.99072999, -10.727700
  135,'BUS_135     ', 220.0000,1,   1,   1,   1,0.96828002, -23.947700
  136,'BUS_136     ', 220.0000,1,   1,   1,   1,0.96828002, -23.947700
  137,'BUS_137     ', 400.0000,1,   1,   1,   1,0.96197999, -10.759900
  138,'BUS_138     ', 400.0000,1,   1,   1,   1,0.96197999, -10.759900
  139,'BUS_139     ', 220.0000,2,   1,   1,   1,1.00000000,  -2.948300
  140,'BUS_140     ', 220.0000,2,   1,   1,   1,1.00000000,  -2.948300
  141,'BUS_141     ', 220.0000,1,   1,   1,   1,0.97531998, -20.897300
  142,'BUS_142     ', 220.0000,1,   1,   1,   1,0.96759999, -24.205200
  143,'BUS_143     ', 220.0000,1,   1,   1,   1,0.98653001, -17.424800
  144,'BUS_144     ', 220.0000,1,   1,   1,   1,0.98653001, -17.424800
  145,'BUS_145     ', 400.0000,1,   1,   1,   1,0.91327000, -17.053200
  146,'BUS_146     ', 400.0000,1,   1,   1,   1,0.91327000, -17.053200
  147,'BUS_147     ', 220.0000,1,   1,   1,   1,0.97364998, -18.725401
  148,'BUS_148     ', 220.0000,1,   1,   1,   1,0.97364998, -18.725401
  149,'BUS_149     ', 220.0000,1,   1,   1,   1,0.98242003, -18.158300
  150,'BUS_150     ', 220.0000,1,   1,   1,   1,1.00209999, -16.095899
  151,'BUS_151     ', 220.0000,1,   1,   1,   1,1.00209999, -16.095899
  152,'BUS_152     ', 220.0000,1,   1,   1,   1,1.00133002, -14.297900
  153,'BUS_153     ', 220.0000,1,   1,   1,   1,1.00133002, -14.297900
  154,'BUS_154     ', 220.0000,1,   1,   1,   1,0.95736998, -20.431601
  155,'BUS_155     ', 220.0000,1,   1,   1,   1,0.97355998, -11.544000
  156,'BUS_156     ', 220.0000,1,   1,   1,   1,1.06616998, -15.484601
  157,'BUS_157     ', 400.0000,1,   1,   1,   1,0.99037999, -13.825500
  158,'BUS_158     ', 400.0000,1,   1,   1,   1,0.99037999, -13.825500
  159,'BUS_159     ', 400.0000,1,   1,   1,   1,0.99002999, -11.044200
  160,'BUS_160     ', 400.0000,1,   1,   1,   1,0.99002999, -11.044200
  161,'BUS_161     ', 220.0000,1,   1,   1,   1,0.99790001, -15.762000
  162,'BUS_162     ', 220.0000,1,   1,   1,   1,0.99790001, -15.762000
  163,'BUS_163     ', 220.0000,1,   1,   1,   1,1.01786005, -12.799900
  164,'BUS_164     ', 220.0000,1,   1,   1,   1,1.01786005, -12.799900
  165,'BUS_165     ', 400.0000,1,   1,   1,   1,0.95705998, -10.419800
  166,'BUS_166     ', 220.0000,1,   1,   1,   1,0.98427999, -10.820100
  167,'BUS_167     ', 220.0000,1,   1,   1,   1,0.98427999, -10.820100
  168,'BUS_168     ', 400.0000,1,   1,   1,   1,0.98324001, -12.563000
  169,'BUS_169     ', 400.0000,1,   1,   1,   1,0.98324001, -12.563000
  170,'BUS_170     ', 220.0000,1,   1,   1,   1,0.97289002, -12.873900
  171,'BUS_171     ', 220.0000,1,   1,   1,   1,0.97289002, -12.873900
  172,'BUS_172     ', 220.0000,1,   1,   1,   1,0.98493999, -13.347700
  173,'BUS_173     ', 220.0000,1,   1,   1,   1,0.98493999, -13.347700
  174,'BUS_174     ', 220.0000,1,   1,   1,   1,0.97097999, -11.014900
  175,'BUS_175     ', 220.0000,1,   1,   1,   1,0.97097999, -11.014900
  176,'BUS_176     ', 400.0000,2,   1,   1,   1,1.00000000,  -9.567500
  177,'BUS_177     ', 400.0000,2,   1,   1,   1,1.00000000,  -9.567500
  178,'BUS_178     ', 220.0000,1,   1,   1,   1,1.02875996, -17.249200
  179,'BUS_179     ', 220.0000,1,   1,   1,   1,1.02875996, -17.249200
  180,'BUS_180     ', 400.0000,2,   1,   1,   1,1.00000000,  -5.036900
  181,'BUS_181     ', 220.0000,2,   1,   1,   1,1.00000000,   7.504200
  182,'BUS_182     ', 400.0000,2,   1,   1,   1,1.00000000, -10.475300
  183,'BUS_183     ', 400.0000,1,   1,   1,   1,1.02073002,  -1.616800
  184,'BUS_184     ', 220.0000,2,   1,   1,   1,1.00000000,  -1.300800
  185,'BUS_185     ', 400.0000,2,   1,   1,   1,1.00000000,  -5.825700
  186,'BUS_186     ', 220.0000,2,   1,   1,   1,1.00000000, -20.753999
  187,'BUS_187     ', 110.0000,1,   1,   1,   1,0.98057002, -11.703300
  188,'BUS_188     ', 110.0000,1,   1,   1,   1,0.95302999, -16.513500
  189,'BUS_189     ', 110.0000,1,   1,   1,   1,0.93291998, -15.359900
  190,'BUS_190     ', 110.0000,1,   1,   1,   1,1.01921999,  -0.044700
  191,'BUS_191     ', 110.0000,1,   1,   1,   1,0.99726999,  -0.817100
  192,'BUS_192     ', 110.0000,2,   1,   1,   1,1.02498996,  -8.069100
  193,'BUS_193     ', 110.0000,1,   1,   1,   1,1.02623999,  -8.121100
  194,'BUS_194     ', 110.0000,1,   1,   1,   1,1.02425003,  -8.258200
  195,'BUS_195     ', 110.0000,1,   1,   1,   1,0.99387997, -12.345700
  196,'BUS_196     ', 110.0000,2,   1,   1,   1,0.97035003, -23.820601
  197,'BUS_197     ', 110.0000,1,   1,   1,   1,0.98041999,  -7.352500
  198,'BUS_198     ', 110.0000,2,   1,   1,   1,0.98733997, -12.302600
  199,'BUS_199     ', 110.0000,1,   1,   1,   1,1.02234995,  -2.121900
...
0 / END OF BUS DATA, BEGIN LOAD DATA
   10,'1 ',1,   1,   1,    10.601,     7.650,     0.000,     0.000,     0.000,     0.000,   1,1
   16,'1 ',1,   1,   1,    47.567,    45.000,     0.000,     0.000,     0.000,     0.000,   1,1
   17,'1 ',1,   1,   1,    66.739,    77.500,     0.000,     0.000,     0.000,     0.000,   1,1
   18,'1 ',1,   1,   1,   127.612,    97.500,     0.000,     0.000,     0.000,     0.000,   1,1
   29,'1 ',1,   1,   1,    33.518,    51.000,     0.000,     0.000,     0.000,     0.000,   1,1
   30,'1 ',1,   1,   1,    33.518,    51.000,     0.000,     0.000,     0.000,     0.000,   1,1
   31,'1 ',1,   1,   1,    18.184,    42.500,     0.000,     0.000,     0.000,     0.000,   1,1
   41,'1 ',1,   1,   1,    10.392,    25.500,     0.000,     0.000,     0.000,     0.000,   1,1
   42,'1 ',1,   1,   1,    10.392,    25.500,     0.000,     0.000,     0.000,     0.000,   1,1
   43,'1 ',1,   1,   1,    20.785,    51.000,     0.000,     0.000,     0.000,     0.000,   1,1
   44,'1 ',1,   1,   1,    20.785,    51.000,     0.000,     0.000,     0.000,     0.000,   1,1
   45,'1 ',1,   1,   1,   138.541,    63.750,     0.000,     0.000,     0.000,     0.000,   1,1
   57,'1 ',1,   1,   1,    19.918,     9.316,     0.000,     0.000,     0.000,     0.000,   1,1
   58,'1 ',1,   1,   1,    19.051,     4.922,     0.000,     0.000,     0.000,     0.000,   1,1
   63,'1 ',1,   1,   1,    32.390,    44.786,     0.000,     0.000,     0.000,     0.000,   1,1
   64,'1 ',1,   1,   1,    30.656,    47.022,     0.000,     0.000,     0.000,     0.000,   1,1
   65,'1 ',1,   1,   1,    11.606,     1.717,     0.000,     0.000,     0.000,     0.000,   1,1
   67,'1 ',1,   1,   1,    52.351,    78.285,     0.000,     0.000,     0.000,     0.000,   1,1
   83,'1 ',1,   1,   1,    13.859,    19.524,     0.000,     0.000,     0.000,     0.000,   1,1
   84,'1 ',1,   1,   1,    13.685,    18.930,     0.000,     0.000,     0.000,     0.000,   1,1
   85,'1 ',1,   1,   1,     8.658,    14.458,     0.000,     0.000,     0.000,     0.000,   1,1
   86,'1 ',1,   1,   1,     8.658,    14.161,     0.000,     0.000,     0.000,     0.000,   1,1
   87,'1 ',1,   1,   1,     9.613,    13.787,     0.000,     0.000,     0.000,     0.000,   1,1
   93,'1 ',1,   1,   1,     8.658,    13.931,     0.000,     0.000,     0.000,     0.000,   1,1
   95,'1 ',1,   1,   1,     5.972,     6.927,     0.000,     0.000,     0.000,     0.000,   1,1
   97,'1 ',1,   1,   1,     7.532,     4.471,     0.000,     0.000,     0.000,     0.000,   1,1
  103,'1 ',1,   1,   1,    15.680,    20.196,     0.000,     0.000,     0.000,     0.000,   1,1
  104,'1 ',1,   1,   1,    27.192,    39.194,     0.000,     0.000,     0.000,     0.000,   1,1
  105,'1 ',1,   1,   1,    19.079,    33.500,     0.000,     0.000,     0.000,     0.000,   1,1
  109,'1 ',1,   1,   1,     0.867,    19.006,     0.000,     0.000,     0.000,     0.000,   1,1
  110,'1 ',1,   1,   1,     0.867,    18.853,     0.000,     0.000,     0.000,     0.000,   1,1
  111,'1 ',1,   1,   1,    22.961,    15.300,     0.000,     0.000,     0.000,     0.000,   1,1
  123,'1 ',1,   1,   1,     4.767,     5.950,     0.000,     0.000,     0.000,     0.000,   1,1
  124,'1 ',1,   1,   1,     7.618,    14.450,     0.000,     0.000,     0.000,     0.000,   1,1
  125,'1 ',1,   1,   1,    30.943,    15.555,     0.000,     0.000,     0.000,     0.000,   1,1
  126,'1 ',1,   1,   1,    46.911,    13.515,     0.000,     0.000,     0.000,     0.000,   1,1
  127,'1 ',1,   1,   1,    47.284,    13.005,     0.000,     0.000,     0.000,     0.000,   1,1
  131,'1 ',1,   1,   1,    59.519,    59.500,     0.000,     0.000,     0.000,     0.000,   1,1
  132,'1 ',1,   1,   1,    28.603,    38.250,     0.000,     0.000,     0.000,     0.000,   1,1
  139,'1 ',1,   1,   1,    28.776,    19.210,     0.000,     0.000,     0.000,     0.000,   1,1
  140,'1 ',1,   1,   1,    25.335,    16.660,     0.000,     0.000,     0.000,     0.000,   1,1
  176,'1 ',1,   1,   1,     0.000,    34.000,     0.000,     0.000,     0.000,     0.000,   1,1
  177,'1 ',1,   1,   1,     0.000,    34.000,     0.000,     0.000,     0.000,     0.000,   1,1
  180,'1 ',1,   1,   1,   281.563,    42.160,     0.000,     0.000,     0.000,     0.000,   1,1
  183,'1 ',1,   1,   1,   130.012,     0.000,     0.000,     0.000,     0.000,     0.000,   1,1
  184,'1 ',1,   1,   1,   270.053,    42.755,     0.000,     0.000,     0.000,     0.000,   1,1
  185,'1 ',1,   1,   1,   311.134,    31.195,     0.000,     0.000,     0.000,     0.000,   1,1
  186,'1 ',1,   1,   1,    26.889,     0.850,     0.000,     0.000,     0.000,     0.000,   1,1
  187,'1 ',1,   1,   1,     6.171,     1.275,     0.000,     0.000,     0.000,     0.000,   1,1
  188,'1 ',1,   1,   1,     6.614,     0.850,     0.000,     0.000,     0.000,     0.000,   1,1
  189,'1 ',1,   1,   1,     8.468,     7.395,     0.000,     0.000,     0.000,     0.000,   1,1
  190,'1 ',1,   1,   1,     5.304,     1.275,     0.000,     0.000,     0.000,     0.000,   1,1
  191,'1 ',1,   1,   1,     5.304,     1.360,     0.000,     0.000,     0.000,     0.000,   1,1
  192,'1 ',1,   1,   1,    26.488,    10.200,     0.000,     0.000,     0.000,     0.000,   1,1
  193,'1 ',1,   1,   1,    13.244,     2.550,     0.000,     0.000,     0.000,     0.000,   1,1
  195,'1 ',1,   1,   1,     7.055,     1.700,     0.000,     0.000,     0.000,     0.000,   1,1
  196,'1 ',1,   1,   1,     5.998,     1.275,     0.000,     0.000,     0.000,     0.000,   1,1
  197,'1 ',1,   1,   1,     5.998,     1.275,     0.000,     0.000,     0.000,     0.000,   1,1
  198,'1 ',1,   1,   1,    10.678,     1.445,     0.000,     0.000,     0.000,     0.000,   1,1
  199,'1 ',1,   1,   1,     1.239,     0.425,     0.000,     0.000,     0.000,     0.000,   1,1
  200,'1 ',1,   1,   1,     0.936,     0.425,     0.000,     0.000,     0.000,     0.000,   1,1
  201,'1 ',1,   1,   1,     4.862,     0.425,     0.000,     0.000,     0.000,     0.000,   1,1
  202,'1 ',1,   1,   1,    15.896,     1.700,     0.000,     0.000,     0.000,     0.000,   1,1
  203,'1 ',1,   1,   1,     9.621,     1.360,     0.000,     0.000,     0.000,     0.000,   1,1
  205,'1 ',1,   1,   1,     5.998,     1.700,     0.000,     0.000,     0.000,     0.000,   1,1
  206,'1 ',1,   1,   1,     9.708,     0.850,     0.000,     0.000,     0.000,     0.000,   1,1
  207,'1 ',1,   1,   1,     6.345,     1.360,     0.000,     0.000,     0.000,     0.000,   1,1
  208,'1 ',1,   1,   1,    -6.345,    -3.825,     0.000,     0.000,     0.000,     0.000,   1,1
  209,'1 ',1,   1,   1,     8.113,     0.680,     0.000,     0.000,     0.000,     0.000,   1,1
  210,'1 ',1,   1,   1,    13.157,     3.740,     0.000,     0.000,     0.000,     0.000,   1,1
  211,'1 ',1,   1,   1,     7.585,     0.170,     0.000,     0.000,     0.000,     0.000,   1,1
  212,'1 ',1,   1,   1,     7.090,     1.275,     0.000,     0.000,     0.000,     0.000,   1,1
  213,'1 ',1,   1,   1,    -1.768,    -0.850,     0.000,     0.000,     0.000,     0.000,   1,1
  214,'1 ',1,   1,   1,    10.418,     0.425,     0.000,     0.000,     0.000,     0.000,   1,1
  215,'1 ',1,   1,   1,     5.998,     1.700,     0.000,     0.000,     0.000,     0.000,   1,1
  216,'1 ',1,   1,   1,     7.671,     0.425,     0.000,     0.000,     0.000,     0.000,   1,1
  217,'1 ',1,   1,   1,     5.681,     0.340,     0.000,     0.000,     0.000,     0.000,   1,1
  218,'1 ',1,   1,   1,    10.592,     1.275,     0.000,     0.000,     0.000,     0.000,   1,1
  219,'1 ',1,   1,   1,     2.211,     0.425,     0.000,     0.000,     0.000,     0.000,   1,1
  220,'1 ',1,   1,   1,     2.211,     0.425,     0.000,     0.000,     0.000,     0.000,   1,1
  221,'1 ',1,   1,   1,     3.536,     0.425,     0.000,     0.000,     0.000,     0.000,   1,1
  222,'1 ',1,   1,   1,     5.659,     0.340,     0.000,     0.000,     0.000,     0.000,   1,1
  223,'1 ',1,   1,   1,    16.165,     3.400,     0.000,     0.000,     0.000,     0.000,   1,1
  224,'1 ',1,   1,   1,    15.214,     2.125,     0.000,     0.000,     0.000,     0.000,   1,1
  225,'1 ',1,   1,   1,    14.995,     1.700,     0.000,     0.000,     0.000,     0.000,   1,1
  226,'1 ',1,   1,   1,    21.183,     1.275,     0.000,     0.000,     0.000,     0.000,   1,1
  227,'1 ',1,   1,   1,     4.862,     0.850,     0.000,     0.000,     0.000,     0.000,   1,1
  228,'1 ',1,   1,   1,     9.881,     0.935,     0.000,     0.000,     0.000,     0.000,   1,1
  229,'1 ',1,   1,   1,     9.534,     2.295,     0.000,     0.000,     0.000,     0.000,   1,1
  230,'1 ',1,   1,   1,     6.614,     0.850,     0.000,     0.000,     0.000,     0.000,   1,1
  231,'1 ',1,   1,   1,     6.882,     0.935,     0.000,     0.000,     0.000,     0.000,   1,1
  232,'1 ',1,   1,   1,     6.882,     0.935,     0.000,     0.000,     0.000,     0.000,   1,1
  233,'1 ',1,   1,   1,     1.595,     0.680,     0.000,     0.000,     0.000,     0.000,   1,1
  234,'1 ',1,   1,   1,    27.001,    23.800,     0.000,     0.000,     0.000,     0.000,   1,1
  235,'1 ',1,   1,   1,    27.261,    23.800,     0.000,     0.000,     0.000,     0.000,   1,1
  236,'1 ',1,   1,   1,     0.884,     0.425,     0.000,     0.000,     0.000,     0.000,   1,1
  237,'1 ',1,   1,   1,     6.993,     1.445,     0.000,     0.000,     0.000,     0.000,   1,1
  238,'1 ',1,   1,   1,     8.650,     0.850,     0.000,     0.000,     0.000,     0.000,   1,1
  239,'1 ',1,   1,   1,    13.244,     1.275,     0.000,     0.000,     0.000,     0.000,   1,1
  240,'1 ',1,   1,   1,     9.708,     1.275,     0.000,     0.000,     0.000,     0.000,   1,1
  241,'1 ',1,   1,   1,     8.823,     2.550,     0.000,     0.000,     0.000,     0.000,   1,1
  242,'1 ',1,   1,   1,     1.057,     0.085,     0.000,     0.000,     0.000,     0.000,   1,1
  244,'1 ',1,   1,   1,     0.884,     0.000,     0.000,     0.000,     0.000,     0.000,   1,1
  245,'1 ',1,   1,   1,    10.505,     4.590,     0.000,     0.000,     0.000,     0.000,   1,1
  246,'1 ',1,   1,   1,    -7.055,    -3.060,     0.000,     0.000,     0.000,     0.000,   1,1
  247,'1 ',1,   1,   1,     9.708,     1.275,     0.000,     0.000,     0.000,     0.000,   1,1
  248,'1 ',1,   1,   1,     2.652,     0.425,     0.000,     0.000,     0.000,     0.000,   1,1
  249,'1 ',1,   1,   1,     7.939,     0.000,     0.000,     0.000,     0.000,     0.000,   1,1
  250,'1 ',1,   1,   1,    24.017,     2.550,     0.000,     0.000,     0.000,     0.000,   1,1
  251,'1 ',1,   1,   1,    18.531,     3.400,     0.000,     0.000,     0.000,     0.000,   1,1
  252,'1 ',1,   1,   1,    15.472,     3.400,     0.000,     0.000,     0.000,     0.000,   1,1
  253,'1 ',1,   1,   1,    12.889,     3.655,     0.000,     0.000,     0.000,     0.000,   1,1
  254,'1 ',1,   1,   1,    17.214,     2.975,     0.000,     0.000,     0.000,     0.000,   1,1
  255,'1 ',1,   1,   1,     8.823,     0.850,     0.000,     0.000,     0.000,     0.000,   1,1
  256,'1 ',1,   1,   1,     4.862,     0.000,     0.000,     0.000,     0.000,     0.000,   1,1
  257,'1 ',1,   1,   1,     6.171,     0.170,     0.000,     0.000,     0.000,     0.000,   1,1
  258,'1 ',1,   1,   1,     3.536,     0.255,     0.000,     0.000,     0.000,     0.000,   1,1
  259,'1 ',1,   1,   1,    18.089,     3.570,     0.000,     0.000,     0.000,     0.000,   1,1
  260,'1 ',1,   1,   1,     9.266,     1.275,     0.000,     0.000,     0.000,     0.000,   1,1
  261,'1 ',1,   1,   1,     6.882,     1.700,     0.000,     0.000,     0.000,     0.000,   1,1
  262,'1 ',1,   1,   1,     0.173,     0.000,     0.000,     0.000,     0.000,     0.000,   1,1
  263,'1 ',1,   1,   1,     4.594,     0.850,     0.000,     0.000,     0.000,     0.000,   1,1
  264,'1 ',1,   1,   1,     6.513,     0.850,     0.000,     0.000,     0.000,     0.000,   1,1
  265,'1 ',1,   1,   1,    10.592,     0.850,     0.000,     0.000,     0.000,     0.000,   1,1
  266,'1 ',1,   1,   1,     7.229,     1.360,     0.000,     0.000,     0.000,     0.000,   1,1
  267,'1 ',1,   1,   1,     8.997,     2.550,     0.000,     0.000,     0.000,     0.000,   1,1
  268,'1 ',1,   1,   1,    12.889,     3.145,     0.000,     0.000,     0.000,     0.000,   1,1
  269,'1 ',1,   1,   1,    13.244,     3.400,     0.000,     0.000,     0.000,     0.000,   1,1
  270,'1 ',1,   1,   1,     3.180,     0.425,     0.000,     0.000,     0.000,     0.000,   1,1
  271,'1 ',1,   1,   1,     3.180,     0.425,     0.000,     0.000,     0.000,     0.000,   1,1
  272,'1 ',1,   1,   1,     8.026,     2.550,     0.000,     0.000,     0.000,     0.000,   1,1
  273,'1 ',1,   1,   1,    11.208,     3.145,     0.000,     0.000,     0.000,     0.000,   1,1
  274,'1 ',1,   1,   1,    22.249,     6.290,     0.000,     0.000,     0.000,     0.000,   1,1
  275,'1 ',1,   1,   1,    17.126,     5.695,     0.000,     0.000,     0.000,     0.000,   1,1
  276,'1 ',1,   1,   1,    11.360,     4.335,     0.000,     0.000,     0.000,     0.000,   1,1
  277,'1 ',1,   1,   1,    39.192,    17.340,     0.000,     0.000,     0.000,     0.000,   1,1
  278,'1 ',1,   1,   1,    21.626,     8.245,     0.000,     0.000,     0.000,     0.000,   1,1
  279,'1 ',1,   1,   1,    21.626,     8.245,     0.000,     0.000,     0.000,     0.000,   1,1
  281,'1 ',1,   1,   1,    26.574,    10.115,     0.000,     0.000,     0.000,     0.000,   1,1
  282,'1 ',1,   1,   1,    11.389,     4.335,     0.000,     0.000,     0.000,     0.000,   1,1
  283,'1 ',1,   1,   1,    14.752,     0.170,     0.000,     0.000,     0.000,     0.000,   1,1
  284,'1 ',1,   1,   1,     2.211,     0.425,     0.000,     0.000,     0.000,     0.000,   1,1
  285,'1 ',1,   1,   1,     7.055,     1.275,     0.000,     0.000,     0.000,     0.000,   1,1
  286,'1 ',1,   1,   1,    25.786,     3.485,     0.000,     0.000,     0.000,     0.000,   1,1
  287,'1 ',1,   1,   1,    10.592,     3.400,     0.000,     0.000,     0.000,     0.000,   1,1
  288,'1 ',1,   1,   1,    11.389,     3.230,     0.000,     0.000,     0.000,     0.000,   1,1
  289,'1 ',1,   1,   1,    16.444,     5.185,     0.000,     0.000,     0.000,     0.000,   1,1
  290,'1 ',1,   1,   1,    15.012,     2.550,     0.000,     0.000,     0.000,     0.000,   1,1
  291,'1 ',1,   1,   1,    14.569,     4.590,     0.000,     0.000,     0.000,     0.000,   1,1
  292,'1 ',1,   1,   1,    15.012,     4.250,     0.000,     0.000,     0.000,     0.000,   1,1
  293,'1 ',1,   1,   1,     6.439,     1.785,     0.000,     0.000,     0.000,     0.000,   1,1
  294,'1 ',1,   1,   1,    13.244,     2.550,     0.000,     0.000,     0.000,     0.000,   1,1
  295,'1 ',1,   1,   1,    10.287,     2.890,     0.000,     0.000,     0.000,     0.000,   1,1
  296,'1 ',1,   1,   1,    15.280,     4.335,     0.000,     0.000,     0.000,     0.000,   1,1
  297,'1 ',1,   1,   1,     7.410,     1.700,     0.000,     0.000,     0.000,     0.000,   1,1
  298,'1 ',1,   1,   1,     6.085,     1.360,     0.000,     0.000,     0.000,     0.000,   1,1
  299,'1 ',1,   1,   1,    41.656,    11.730,     0.000,     0.000,     0.000,     0.000,   1,1
  300,'1 ',1,   1,   1,    18.531,     7.650,     0.000,     0.000,     0.000,     0.000,   1,1
  301,'1 ',1,   1,   1,     5.446,     1.105,     0.000,     0.000,     0.000,     0.000,   1,1
  302,'1 ',1,   1,   1,     3.298,     1.105,     0.000,     0.000,     0.000,     0.000,   1,1
  303,'1 ',1,   1,   1,     5.533,     0.425,     0.000,     0.000,     0.000,     0.000,   1,1
  304,'1 ',1,   1,   1,    14.611,     4.335,     0.000,     0.000,     0.000,     0.000,   1,1
  305,'1 ',1,   1,   1,     6.592,     0.935,     0.000,     0.000,     0.000,     0.000,   1,1
  306,'1 ',1,   1,   1,    16.718,     3.400,     0.000,     0.000,     0.000,     0.000,   1,1
  307,'1 ',1,   1,   1,    14.057,     3.400,     0.000,     0.000,     0.000,     0.000,   1,1
  308,'1 ',1,   1,   1,     4.465,     0.000,     0.000,     0.000,     0.000,     0.000,   1,1
  311,'1 ',1,   1,   1,    23.366,     4.845,     0.000,     0.000,     0.000,     0.000,   1,1
  313,'1 ',1,   1,   1,     6.234,     0.425,     0.000,     0.000,     0.000,     0.000,   1,1
  314,'1 ',1,   1,   1,     7.017,     0.850,     0.000,     0.000,     0.000,     0.000,   1,1
  315,'1 ',1,   1,   1,     8.292,     0.000,     0.000,     0.000,     0.000,     0.000,   1,1
  316,'1 ',1,   1,   1,    14.183,     3.400,     0.000,     0.000,     0.000,     0.000,   1,1
  317,'1 ',1,   1,   1,     3.607,     1.700,     0.000,     0.000,     0.000,     0.000,   1,1
  318,'1 ',1,   1,   1,     5.358,     1.700,     0.000,     0.000,     0.000,     0.000,   1,1
  319,'1 ',1,   1,   1,     0.709,     0.255,     0.000,     0.000,     0.000,     0.000,   1,1
  320,'1 ',1,   1,   1,     6.234,     0.850,     0.000,     0.000,     0.000,     0.000,   1,1
  323,'1 ',1,   1,   1,     8.737,     1.530,     0.000,     0.000,     0.000,     0.000,   1,1
  324,'1 ',1,   1,   1,     9.806,     1.360,     0.000,     0.000,     0.000,     0.000,   1,1
  325,'1 ',1,   1,   1,    11.950,     0.255,     0.000,     0.000,     0.000,     0.000,   1,1
  326,'1 ',1,   1,   1,     5.796,     1.020,     0.000,     0.000,     0.000,     0.000,   1,1
  327,'1 ',1,   1,   1,     5.572,     0.085,     0.000,     0.000,     0.000,     0.000,   1,1
  328,'1 ',1,   1,   1,    38.125,    19.550,     0.000,     0.000,     0.000,     0.000,   1,1
  329,'1 ',1,   1,   1,    38.125,    19.550,     0.000,     0.000,     0.000,     0.000,   1,1
  330,'1 ',1,   1,   1,    42.339,    18.700,     0.000,     0.000,     0.000,     0.000,   1,1
  331,'1 ',1,   1,   1,    42.339,    18.700,     0.000,     0.000,     0.000,     0.000,   1,1
  333,'1 ',1,   1,   1,     8.292,     0.340,     0.000,     0.000,     0.000,     0.000,   1,1
  334,'1 ',1,   1,   1,    13.717,     0.595,     0.000,     0.000,     0.000,     0.000,   1,1
  335,'1 ',1,   1,   1,     3.572,     0.850,     0.000,     0.000,     0.000,     0.000,   1,1
  337,'1 ',1,   1,   1,    15.611,     4.675,     0.000,     0.000,     0.000,     0.000,   1,1
  338,'1 ',1,   1,   1,     2.233,     1.020,     0.000,     0.000,     0.000,     0.000,   1,1
  339,'1 ',1,   1,   1,     3.484,     1.445,     0.000,     0.000,     0.000,     0.000,   1,1
  340,'1 ',1,   1,   1,     9.806,     1.275,     0.000,     0.000,     0.000,     0.000,   1,1
  341,'1 ',1,   1,   1,     9.630,     0.085,     0.000,     0.000,     0.000,     0.000,   1,1
  342,'1 ',1,   1,   1,    14.271,     1.360,     0.000,     0.000,     0.000,     0.000,   1,1
  343,'1 ',1,   1,   1,     1.893,     0.425,     0.000,     0.000,     0.000,     0.000,   1,1
  344,'1 ',1,   1,   1,     6.965,     3.400,     0.000,     0.000,     0.000,     0.000,   1,1
  345,'1 ',1,   1,   1,    13.523,     3.400,     0.000,     0.000,     0.000,     0.000,   1,1
  346,'1 ',1,   1,   1,    17.057,    11.050,     0.000,     0.000,     0.000,     0.000,   1,1
  347,'1 ',1,   1,   1,     7.127,     3.825,     0.000,     0.000,     0.000,     0.000,   1,1
  348,'1 ',1,   1,   1,     1.786,     0.425,     0.000,     0.000,     0.000,     0.000,   1,1
  349,'1 ',1,   1,   1,    17.834,     3.825,     0.000,     0.000,     0.000,     0.000,   1,1
...
0 / END OF LOAD DATA, BEGIN FIXED SHUNT DATA
0 / END OF FIXED SHUNT DATA, BEGIN GENERATOR DATA
   10,'1 ',   400.000,    37.236,   120.000,     0.000,1.00000,    0,   100.000,   0.00000,   1.00000,   0.00000,   0.00000,1.00000,1,  100.0,   400.000,    70.000,   1,1.0000,   0,1.0000,   0,1.0000,   0,1.0000,0, 1.0000
   16,'1 ',   720.000,   -40.000,   440.000,   -40.000,1.01447,    0,   100.000,   0.00000,   1.00000,   0.00000,   0.00000,1.00000,1,  100.0,   720.000,   120.000,   1,1.0000,   0,1.0000,   0,1.0000,   0,1.0000,0, 1.0000
   17,'1 ',   980.000,   -58.034,   660.000,   -60.000,1.00346,    0,   100.000,   0.00000,   1.00000,   0.00000,   0.00000,1.00000,1,  100.0,  1080.000,   120.000,   1,1.0000,   0,1.0000,   0,1.0000,   0,1.0000,0, 1.0000
   18,'1 ',   265.688,   479.899,  1540.000,  -140.000,1.00000,    0,   100.000,   0.00000,   1.00000,   0.00000,   0.00000,1.00000,1,  100.0,  2520.000,   120.000,   1,1.0000,   0,1.0000,   0,1.0000,   0,1.0000,0, 1.0000
   29,'1 ',   227.000,     4.386,   240.000,     0.000,1.00768,    0,   100.000,   0.00000,   1.00000,   0.00000,   0.00000,1.00000,1,  100.0,   400.000,    70.000,   1,1.0000,   0,1.0000,   0,1.0000,   0,1.0000,0, 1.0000
   30,'1 ',   220.000,     4.386,   240.000,     0.000,1.00768,    0,   100.000,   0.00000,   1.00000,   0.00000,   0.00000,1.00000,1,  100.0,   800.000,    70.000,   1,1.0000,   0,1.0000,   0,1.0000,   0,1.0000,0, 1.0000
   31,'1 ',  1000.000,   331.097,   350.000,     0.000,0.99317,    0,   100.000,   0.00000,   1.00000,   0.00000,   0.00000,1.00000,1,  100.0,  1000.000,   150.000,   1,1.0000,   0,1.0000,   0,1.0000,   0,1.0000,0, 1.0000
   41,'1 ',   180.000,     0.000,   120.000,     0.000,1.01190,    0,   100.000,   0.00000,   1.00000,   0.00000,   0.00000,1.00000,1,  100.0,   200.000,    70.000,   1,1.0000,   0,1.0000,   0,1.0000,   0,1.0000,0, 1.0000
   42,'1 ',   270.000,     0.000,   120.000,     0.000,1.01190,    0,   100.000,   0.00000,   1.00000,   0.00000,   0.00000,1.00000,1,  100.0,   410.000,    70.000,   1,1.0000,   0,1.0000,   0,1.0000,   0,1.0000,0, 1.0000
   43,'1 ',   410.000,    73.655,   240.000,     0.000,1.00000,    0,   100.000,   0.00000,   1.00000,   0.00000,   0.00000,1.00000,1,  100.0,   410.000,    70.000,   1,1.0000,   0,1.0000,   0,1.0000,   0,1.0000,0, 1.0000
   44,'1 ',   410.000,    73.655,   240.000,     0.000,1.00000,    0,   100.000,   0.00000,   1.00000,   0.00000,   0.00000,1.00000,1,  100.0,   410.000,    70.000,   1,1.0000,   0,1.0000,   0,1.0000,   0,1.0000,0, 1.0000
   45,'1 ',    42.200,     9.843,    21.000,     0.000,0.99770,    0,   100.000,   0.00000,   1.00000,   0.00000,   0.00000,1.00000,1,  100.0,    42.200,    39.140,   1,1.0000,   0,1.0000,   0,1.0000,   0,1.0000,0, 1.0000
   63,'1 ',   620.000,     4.241,   302.000,     0.000,1.00000,    0,   100.000,   0.00000,   1.00000,   0.00000,   0.00000,1.00000,1,  100.0,   650.000,   145.000,   1,1.0000,   0,1.0000,   0,1.0000,   0,1.0000,0, 1.0000
   64,'1 ',   450.000,     2.000,   311.000,     2.000,1.00108,    0,   100.000,   0.00000,   1.00000,   0.00000,   0.00000,1.00000,1,  100.0,   450.000,   145.000,   1,1.0000,   0,1.0000,   0,1.0000,   0,1.0000,0, 1.0000
   67,'1 ',   485.134,   414.435,   449.000,     0.000,1.00000,    0,   100.000,   0.00000,   1.00000,   0.00000,   0.00000,1.00000,1,  100.0,   750.000,   220.000,   1,1.0000,   0,1.0000,   0,1.0000,   0,1.0000,0, 1.0000
   83,'1 ',   225.000,    19.128,   190.000,   -89.000,1.00000,    0,   100.000,   0.00000,   1.00000,   0.00000,   0.00000,1.00000,1,  100.0,   225.000,   140.000,   1,1.0000,   0,1.0000,   0,1.0000,   0,1.0000,0, 1.0000
   84,'1 ',   160.000,    19.128,   190.000,   -89.000,1.00000,    0,   100.000,   0.00000,   1.00000,   0.00000,   0.00000,1.00000,1,  100.0,   225.000,   140.000,   1,1.0000,   0,1.0000,   0,1.0000,   0,1.0000,0, 1.0000
   85,'1 ',    40.000,    40.360,   125.000,   -50.000,1.00000,    0,   100.000,   0.00000,   1.00000,   0.00000,   0.00000,1.00000,1,  100.0,   120.000,    40.000,   1,1.0000,   0,1.0000,   0,1.0000,   0,1.0000,0, 1.0000
   86,'1 ',    40.000,    40.360,   125.000,   -50.000,1.00000,    0,   100.000,   0.00000,   1.00000,   0.00000,   0.00000,1.00000,1,  100.0,   120.000,    40.000,   1,1.0000,   0,1.0000,   0,1.0000,   0,1.0000,0, 1.0000
   93,'1 ',   120.000,     5.000,    90.000,     5.000,1.00026,    0,   100.000,   0.00000,   1.00000,   0.00000,   0.00000,1.00000,1,  100.0,   120.000,    80.000,   1,1.0000,   0,1.0000,   0,1.0000,   0,1.0000,0, 1.0000
   95,'1 ',   110.000,    36.170,    68.000,    27.000,1.00465,    0,   100.000,   0.00000,   1.00000,   0.00000,   0.00000,1.00000,1,  100.0,   110.000,    50.000,   1,1.0000,   0,1.0000,   0,1.0000,   0,1.0000,0, 1.0000
   97,'1 ',    87.600,    39.239,    68.000,    27.000,1.00000,    0,   100.000,   0.00000,   1.00000,   0.00000,   0.00000,1.00000,1,  100.0,    87.600,    83.260,   1,1.0000,   0,1.0000,   0,1.0000,   0,1.0000,0, 1.0000
  103,'1 ',   160.000,   -65.390,   177.000,   -82.000,1.00000,    0,   100.000,   0.00000,   1.00000,   0.00000,   0.00000,1.00000,1,  100.0,   400.000,   160.000,   1,1.0000,   0,1.0000,   0,1.0000,   0,1.0000,0, 1.0000
  104,'1 ',   160.000,   -65.390,   379.000,  -177.000,1.00000,    0,   100.000,   0.00000,   1.00000,   0.00000,   0.00000,1.00000,1,  100.0,   225.000,   140.000,   1,1.0000,   0,1.0000,   0,1.0000,   0,1.0000,0, 1.0000
  105,'1 ',   304.000,   256.355,   353.000,  -165.000,1.00000,    0,   100.000,   0.00000,   1.00000,   0.00000,   0.00000,1.00000,1,  100.0,   430.000,   160.000,   1,1.0000,   0,1.0000,   0,1.0000,   0,1.0000,0, 1.0000
  109,'1 ',   230.000,     5.363,    65.000,     0.000,1.00000,    0,   100.000,   0.00000,   1.00000,   0.00000,   0.00000,1.00000,1,  100.0,   250.000,    80.000,   1,1.0000,   0,1.0000,   0,1.0000,   0,1.0000,0, 1.0000
  110,'1 ',   240.000,     4.024,    65.000,     0.000,1.00000,    0,   100.000,   0.00000,   1.00000,   0.00000,   0.00000,1.00000,1,  100.0,   250.000,    80.000,   1,1.0000,   0,1.0000,   0,1.0000,   0,1.0000,0, 1.0000
  111,'1 ',   330.000,    62.846,   270.000,     0.000,1.00000,    0,   100.000,   0.00000,   1.00000,   0.00000,   0.00000,1.00000,1,  100.0,   360.000,    40.000,   1,1.0000,   0,1.0000,   0,1.0000,   0,1.0000,0, 1.0000
  123,'1 ',    99.000,    28.675,    40.000,     0.000,1.00000,    0,   100.000,   0.00000,   1.00000,   0.00000,   0.00000,1.00000,1,  100.0,   110.000,    20.000,   1,1.0000,   0,1.0000,   0,1.0000,   0,1.0000,0, 1.0000
  124,'1 ',   125.000,    28.675,    90.000,     0.000,1.00000,    0,   100.000,   0.00000,   1.00000,   0.00000,   0.00000,1.00000,1,  100.0,   125.000,    45.000,   1,1.0000,   0,1.0000,   0,1.0000,   0,1.0000,0, 1.0000
  125,'1 ',   135.101,    80.783,   360.000,     0.000,1.00000,    0,   100.000,   0.00000,   1.00000,   0.00000,   0.00000,1.00000,1,  100.0,   860.000,    70.000,   1,1.0000,   0,1.0000,   0,1.0000,   0,1.0000,0, 1.0000
  127,'1 ',   560.000,   294.138,   360.000,     0.000,1.00000,    0,   100.000,   0.00000,   1.00000,   0.00000,   0.00000,1.00000,1,  100.0,   690.000,    70.000,   1,1.0000,   0,1.0000,   0,1.0000,   0,1.0000,0, 1.0000
  131,'1 ',   597.231,     0.000,   360.000,     0.000,1.03658,    0,   100.000,   0.00000,   1.00000,   0.00000,   0.00000,1.00000,1,  100.0,  1060.000,    70.000,   1,1.0000,   0,1.0000,   0,1.0000,   0,1.0000,0, 1.0000
  132,'1 ',   223.628,     9.430,   480.000,     0.000,1.03658,    0,   100.000,   0.00000,   1.00000,   0.00000,   0.00000,1.00000,1,  100.0,   600.000,    70.000,   1,1.0000,   0,1.0000,   0,1.0000,   0,1.0000,0, 1.0000
  139,'1 ',   580.000,    45.054,   360.000,     0.000,1.00000,    0,   100.000,   0.00000,   1.00000,   0.00000,   0.00000,1.00000,1,  100.0,   600.000,    70.000,   1,1.0000,   0,1.0000,   0,1.0000,   0,1.0000,0, 1.0000
  140,'1 ',   180.000,    45.054,   120.000,     0.000,1.00000,    0,   100.000,   0.00000,   1.00000,   0.00000,   0.00000,1.00000,1,  100.0,   200.000,    70.000,   1,1.0000,   0,1.0000,   0,1.0000,   0,1.0000,0, 1.0000
  176,'1 ',   580.000,    91.598,   220.000,  -120.000,1.00000,    0,   100.000,   0.00000,   1.00000,   0.00000,   0.00000,1.00000,1,  100.0,   600.000,    70.000,   1,1.0000,   0,1.0000,   0,1.0000,   0,1.0000,0, 1.0000
  177,'1 ',   200.000,    91.598,   220.000,  -120.000,1.00000,    0,   100.000,   0.00000,   1.00000,   0.00000,   0.00000,1.00000,1,  100.0,   200.000,    70.000,   1,1.0000,   0,1.0000,   0,1.0000,   0,1.0000,0, 1.0000
  180,'1 ',     0.000,    56.692, 99998.999,-99998.999,1.00000,    0,   100.000,   0.00000,   1.00000,   0.00000,   0.00000,1.00000,1,  100.0,     5.000,     0.000,   1,1.0000,   0,1.0000,   0,1.0000,   0,1.0000,0, 1.0000
  181,'1 ',   175.000,   -12.121, 99998.999,-99998.999,1.00000,    0,   100.000,   0.00000,   1.00000,   0.00000,   0.00000,1.00000,1,  100.0,   175.000,   174.000,   1,1.0000,   0,1.0000,   0,1.0000,   0,1.0000,0, 1.0000
  182,'1 ',   306.000,   511.131, 99998.999,-99998.999,1.00000,    0,   100.000,   0.00000,   1.00000,   0.00000,   0.00000,1.00000,1,  100.0,   307.590,   306.000,   1,1.0000,   0,1.0000,   0,1.0000,   0,1.0000,0, 1.0000
  184,'1 ',     0.000,    94.672, 99998.999,-99998.999,1.00000,    0,   100.000,   0.00000,   1.00000,   0.00000,   0.00000,1.00000,1,  100.0,     5.000,     0.000,   1,1.0000,   0,1.0000,   0,1.0000,   0,1.0000,0, 1.0000
  185,'1 ',     0.000,    48.822, 99998.999,-99998.999,1.00000,    0,   100.000,   0.00000,   1.00000,   0.00000,   0.00000,1.00000,1,  100.0,     5.000,     0.000,   1,1.0000,   0,1.0000,   0,1.0000,   0,1.0000,0, 1.0000
  186,'1 ',     0.000,    -1.027, 99998.999,-99998.999,1.00000,    0,   100.000,   0.00000,   1.00000,   0.00000,   0.00000,1.00000,1,  100.0,     5.000,     0.000,   1,1.0000,   0,1.0000,   0,1.0000,   0,1.0000,0, 1.0000
  192,'1 ',    95.000,     0.482,    50.000,     0.000,1.02499,    0,   100.000,   0.00000,   1.00000,   0.00000,   0.00000,1.00000,1,  100.0,    95.000,    90.250,   1,1.0000,   0,1.0000,   0,1.0000,   0,1.0000,0, 1.0000
  196,'1 ',     0.860,     0.000,     1.000,     0.000,0.95507,    0,   100.000,   0.00000,   1.00000,   0.00000,   0.00000,1.00000,1,  100.0,     5.000,     0.860,   1,1.0000,   0,1.0000,   0,1.0000,   0,1.0000,0, 1.0000
  198,'1 ',     0.800,     0.677,     1.000,     0.000,0.98734,    0,   100.000,   0.00000,   1.00000,   0.00000,   0.00000,1.00000,1,  100.0,     5.000,     0.760,   1,1.0000,   0,1.0000,   0,1.0000,   0,1.0000,0, 1.0000
  205,'1 ',    15.000,     0.000,    10.000,     0.000,1.01080,    0,   100.000,   0.00000,   1.00000,   0.00000,   0.00000,1.00000,1,  100.0,    15.000,    14.250,   1,1.0000,   0,1.0000,   0,1.0000,   0,1.0000,0, 1.0000
  213,'1 ',    11.000,     8.000,     8.000,     0.000,0.98349,    0,   100.000,   0.00000,   1.00000,   0.00000,   0.00000,1.00000,1,  100.0,    11.000,    10.450,   1,1.0000,   0,1.0000,   0,1.0000,   0,1.0000,0, 1.0000
  264,'1 ',     2.500,     0.000,     2.000,     0.000,0.98697,    0,   100.000,   0.00000,   1.00000,   0.00000,   0.00000,1.00000,1,  100.0,     5.000,     2.380,   1,1.0000,   0,1.0000,   0,1.0000,   0,1.0000,0, 1.0000
  269,'1 ',     6.000,     0.000,     5.000,     0.000,1.01539,    0,   100.000,   0.00000,   1.00000,   0.00000,   0.00000,1.00000,1,  100.0,     6.000,     5.700,   1,1.0000,   0,1.0000,   0,1.0000,   0,1.0000,0, 1.0000
  277,'1 ',    70.000,     8.572,    42.000,     0.000,1.00000,    0,   100.000,   0.00000,   1.00000,   0.00000,   0.00000,1.00000,1,  100.0,    70.000,    66.500,   1,1.0000,   0,1.0000,   0,1.0000,   0,1.0000,0, 1.0000
  278,'1 ',    60.000,     0.000,    40.000,     0.000,1.00093,    0,   100.000,   0.00000,   1.00000,   0.00000,   0.00000,1.00000,1,  100.0,    60.000,    57.000,   1,1.0000,   0,1.0000,   0,1.0000,   0,1.0000,0, 1.0000
  279,'1 ',    60.000,     0.000,    40.000,     0.000,1.01007,    0,   100.000,   0.00000,   1.00000,   0.00000,   0.00000,1.00000,1,  100.0,    60.000,    57.000,   1,1.0000,   0,1.0000,   0,1.0000,   0,1.0000,0, 1.0000
  281,'1 ',   120.000,     0.479,    90.000,     0.000,1.00299,    0,   100.000,   0.00000,   1.00000,   0.00000,   0.00000,1.00000,1,  100.0,   120.000,   114.000,   1,1.0000,   0,1.0000,   0,1.0000,   0,1.0000,0, 1.0000
  282,'1 ',    40.000,     0.000,    40.000,     0.000,1.01442,    0,   100.000,   0.00000,   1.00000,   0.00000,   0.00000,1.00000,1,  100.0,    40.000,    38.000,   1,1.0000,   0,1.0000,   0,1.0000,   0,1.0000,0, 1.0000
  289,'1 ',     2.500,     0.000,     3.000,     0.000,1.00003,    0,   100.000,   0.00000,   1.00000,   0.00000,   0.00000,1.00000,1,  100.0,     5.000,     2.380,   1,1.0000,   0,1.0000,   0,1.0000,   0,1.0000,0, 1.0000
  294,'1 ',     2.000,     0.000,     1.000,     0.000,0.99897,    0,   100.000,   0.00000,   1.00000,   0.00000,   0.00000,1.00000,1,  100.0,     5.000,     1.900,   1,1.0000,   0,1.0000,   0,1.0000,   0,1.0000,0, 1.0000
  314,'1 ',     1.500,     1.000,     1.000,     0.000,0.98776,    0,   100.000,   0.00000,   1.00000,   0.00000,   0.00000,1.00000,1,  100.0,     5.000,     1.430,   1,1.0000,   0,1.0000,   0,1.0000,   0,1.0000,0, 1.0000
  328,'1 ',    44.000,     0.000,    21.000,     0.000,1.02521,    0,   100.000,   0.00000,   1.00000,   0.00000,   0.00000,1.00000,1,  100.0,    44.000,    41.800,   1,1.0000,   0,1.0000,   0,1.0000,   0,1.0000,0, 1.0000
  329,'1 ',    44.000,    16.723,    21.000,     0.000,1.00000,    0,   100.000,   0.00000,   1.00000,   0.00000,   0.00000,1.00000,1,  100.0,    44.000,    41.800,   1,1.0000,   0,1.0000,   0,1.0000,   0,1.0000,0, 1.0000
  330,'1 ',    44.000,     0.000,    21.000,     0.000,1.04520,    0,   100.000,   0.00000,   1.00000,   0.00000,   0.00000,1.00000,1,  100.0,    44.000,    41.800,   1,1.0000,   0,1.0000,   0,1.0000,   0,1.0000,0, 1.0000
  331,'1 ',    43.000,     0.386,    21.000,     0.000,1.00236,    0,   100.000,   0.00000,   1.00000,   0.00000,   0.00000,1.00000,1,  100.0,    43.000,    40.850,   1,1.0000,   0,1.0000,   0,1.0000,   0,1.0000,0, 1.0000
  334,'1 ',     1.500,     0.000,     1.000,     0.000,1.00078,    0,   100.000,   0.00000,   1.00000,   0.00000,   0.00000,1.00000,1,  100.0,     5.000,     1.430,   1,1.0000,   0,1.0000,   0,1.0000,   0,1.0000,0, 1.0000
  346,'1 ',   155.000,     0.000,   120.000,     0.000,1.00544,    0,   100.000,   0.00000,   1.00000,   0.00000,   0.00000,1.00000,1,  100.0,   200.000,    70.000,   1,1.0000,   0,1.0000,   0,1.0000,   0,1.0000,0, 1.0000
  347,'1 ',    10.000,     0.000,    15.000,     0.000,1.01286,    0,   100.000,   0.00000,   1.00000,   0.00000,   0.00000,1.00000,1,  100.0,    10.000,    10.000,   1,1.0000,   0,1.0000,   0,1.0000,   0,1.0000,0, 1.0000
  359,'1 ',     1.500,     0.000,     1.000,     0.000,1.00133,    0,   100.000,   0.00000,   1.00000,   0.00000,   0.00000,1.00000,1,  100.0,     5.000,     1.430,   1,1.0000,   0,1.0000,   0,1.0000,   0,1.0000,0, 1.0000
  365,'1 ',     5.100,     3.000,     3.000,     0.000,0.99873,    0,   100.000,   0.00000,   1.00000,   0.00000,   0.00000,1.00000,1,  100.0,     5.100,     4.850,   1,1.0000,   0,1.0000,   0,1.0000,   0,1.0000,0, 1.0000
  382,'1 ',     8.000,     5.000,     5.000,     0.000,0.98205,    0,   100.000,   0.00000,   1.00000,   0.00000,   0.00000,1.00000,1,  100.0,     8.000,     7.600,   1,1.0000,   0,1.0000,   0,1.0000,   0,1.0000,0, 1.0000
  383,'1 ',     8.000,     4.937,     5.000,     0.000,0.97600,    0,   100.000,   0.00000,   1.00000,   0.00000,   0.00000,1.00000,1,  100.0,     8.000,     7.600,   1,1.0000,   0,1.0000,   0,1.0000,   0,1.0000,0, 1.0000
  385,'1 ',     6.000,     3.447,     4.000,     0.000,0.97679,    0,   100.000,   0.00000,   1.00000,   0.00000,   0.00000,1.00000,1,  100.0,     6.000,     5.700,   1,1.0000,   0,1.0000,   0,1.0000,   0,1.0000,0, 1.0000
  390,'1 ',     4.500,     1.010,     3.000,     0.000,0.99182,    0,   100.000,   0.00000,   1.00000,   0.00000,   0.00000,1.00000,1,  100.0,     5.000,     4.280,   1,1.0000,   0,1.0000,   0,1.0000,   0,1.0000,0, 1.0000
  395,'1 ',    10.000,     0.000,     8.000,     0.000,1.01998,    0,   100.000,   0.00000,   1.00000,   0.00000,   0.00000,1.00000,1,  100.0,    10.000,     9.500,   1,1.0000,   0,1.0000,   0,1.0000,   0,1.0000,0, 1.0000
  404,'1 ',     3.000,     0.154,     3.000,     0.000,0.98499,    0,   100.000,   0.00000,   1.00000,   0.00000,   0.00000,1.00000,1,  100.0,     5.000,     2.850,   1,1.0000,   0,1.0000,   0,1.0000,   0,1.0000,0, 1.0000
  426,'1 ',     3.200,     2.000,     2.000,     0.000,0.97082,    0,   100.000,   0.00000,   1.00000,   0.00000,   0.00000,1.00000,1,  100.0,     5.000,     3.040,   1,1.0000,   0,1.0000,   0,1.0000,   0,1.0000,0, 1.0000
  444,'1 ',     1.000,     0.039,     1.000,     0.000,1.01647,    0,   100.000,   0.00000,   1.00000,   0.00000,   0.00000,1.00000,1,  100.0,     5.000,     0.950,   1,1.0000,   0,1.0000,   0,1.0000,   0,1.0000,0, 1.0000
  451,'1 ',     4.500,     1.908,     3.000,     0.000,0.99582,    0,   100.000,   0.00000,   1.00000,   0.00000,   0.00000,1.00000,1,  100.0,     5.000,     4.280,   1,1.0000,   0,1.0000,   0,1.0000,   0,1.0000,0, 1.0000
  482,'1 ',     0.950,     0.000,     1.000,     0.000,1.03924,    0,   100.000,   0.00000,   1.00000,   0.00000,   0.00000,1.00000,1,  100.0,     5.000,     0.950,   1,1.0000,   0,1.0000,   0,1.0000,   0,1.0000,0, 1.0000
  492,'1 ',     2.000,     0.000,     1.000,     0.000,1.00457,    0,   100.000,   0.00000,   1.00000,   0.00000,   0.00000,1.00000,1,  100.0,     5.000,     1.900,   1,1.0000,   0,1.0000,   0,1.0000,   0,1.0000,0, 1.0000
  493,'1 ',   228.561,     0.063,   130.000,     0.000,1.00726,    0,   100.000,   0.00000,   1.00000,   0.00000,   0.00000,1.00000,1,  100.0,   234.000,   222.300,   1,1.0000,   0,1.0000,   0,1.0000,   0,1.0000,0, 1.0000
  494,'1 ',   234.000,    88.376,   130.000,     0.000,1.00000,    0,   100.000,   0.00000,   1.00000,   0.00000,   0.00000,1.00000,1,  100.0,   234.000,   222.300,   1,1.0000,   0,1.0000,   0,1.0000,   0,1.0000,0, 1.0000
  514,'1 ',   115.000,    81.428,    90.000,     0.000,1.00000,    0,   100.000,   0.00000,   1.00000,   0.00000,   0.00000,1.00000,1,  100.0,   115.000,   109.250,   1,1.0000,   0,1.0000,   0,1.0000,   0,1.0000,0, 1.0000
  515,'1 ',   115.000,    90.000,    90.000,     0.000,0.98669,    0,   100.000,   0.00000,   1.00000,   0.00000,   0.00000,1.00000,1,  100.0,   115.000,   109.250,   1,1.0000,   0,1.0000,   0,1.0000,   0,1.0000,0, 1.0000
  525,'1 ',     6.000,     0.000,     4.000,     0.000,1.00000,    0,   100.000,   0.00000,   1.00000,   0.00000,   0.00000,1.00000,1,  100.0,     6.000,     5.700,   1,1.0000,   0,1.0000,   0,1.0000,   0,1.0000,0, 1.0000
  536,'1 ',     6.000,     0.917,     6.000,     0.000,0.97737,    0,   100.000,   0.00000,   1.00000,   0.00000,   0.00000,1.00000,1,  100.0,     6.000,     5.700,   1,1.0000,   0,1.0000,   0,1.0000,   0,1.0000,0, 1.0000
  537,'1 ',     3.500,     0.210,     3.000,     0.000,0.98509,    0,   100.000,   0.00000,   1.00000,   0.00000,   0.00000,1.00000,1,  100.0,     5.000,     3.330,   1,1.0000,   0,1.0000,   0,1.0000,   0,1.0000,0, 1.0000
  556,'1 ',     2.700,     0.000,     1.000,     0.000,0.99541,    0,   100.000,   0.00000,   1.00000,   0.00000,   0.00000,1.00000,1,  100.0,     5.000,     2.570,   1,1.0000,   0,1.0000,   0,1.0000,   0,1.0000,0, 1.0000
  580,'1 ',     1.600,     0.000,     1.000,     0.000,1.02149,    0,   100.000,   0.00000,   1.00000,   0.00000,   0.00000,1.00000,1,  100.0,     5.000,     1.520,   1,1.0000,   0,1.0000,   0,1.0000,   0,1.0000,0, 1.0000
  584,'1 ',     2.700,     2.000,     2.000,     0.000,0.98311,    0,   100.000,   0.00000,   1.00000,   0.00000,   0.00000,1.00000,1,  100.0,     5.000,     2.570,   1,1.0000,   0,1.0000,   0,1.0000,   0,1.0000,0, 1.0000
  585,'1 ',     4.000,     1.413,     2.000,     0.000,0.98336,    0,   100.000,   0.00000,   1.00000,   0.00000,   0.00000,1.00000,1,  100.0,     5.000,     3.800,   1,1.0000,   0,1.0000,   0,1.0000,   0,1.0000,0, 1.0000
  607,'1 ',     0.800,     0.000,     0.000,     0.000,1.00824,    0,   100.000,   0.00000,   1.00000,   0.00000,   0.00000,1.00000,1,  100.0,     5.000,     0.760,   1,1.0000,   0,1.0000,   0,1.0000,   0,1.0000,0, 1.0000
  612,'1 ',   200.000,     6.635,   120.000,     0.000,1.00000,    0,   100.000,   0.00000,   1.00000,   0.00000,   0.00000,1.00000,1,  100.0,   200.000,    70.000,   1,1.0000,   0,1.0000,   0,1.0000,   0,1.0000,0, 1.0000
  613,'1 ',   200.000,     6.635,   120.000,     0.000,1.00000,    0,   100.000,   0.00000,   1.00000,   0.00000,   0.00000,1.00000,1,  100.0,   200.000,    70.000,   1,1.0000,   0,1.0000,   0,1.0000,   0,1.0000,0, 1.0000
  615,'1 ',     1.400,     0.000,     1.000,     0.000,1.00709,    0,   100.000,   0.00000,   1.00000,   0.00000,   0.00000,1.00000,1,  100.0,     5.000,     1.330,   1,1.0000,   0,1.0000,   0,1.0000,   0,1.0000,0, 1.0000
  623,'1 ',     7.600,     1.903,     5.000,     0.000,0.99047,    0,   100.000,   0.00000,   1.00000,   0.00000,   0.00000,1.00000,1,  100.0,     7.600,     7.220,   1,1.0000,   0,1.0000,   0,1.0000,   0,1.0000,0, 1.0000
  639,'1 ',     9.600,     0.000,     4.000,     0.000,1.01832,    0,   100.000,   0.00000,   1.00000,   0.00000,   0.00000,1.00000,1,  100.0,     9.600,     9.120,   1,1.0000,   0,1.0000,   0,1.0000,   0,1.0000,0, 1.0000
  651,'1 ',     4.700,     0.000,     2.000,     0.000,1.01015,    0,   100.000,   0.00000,   1.00000,   0.00000,   0.00000,1.00000,1,  100.0,     5.000,     4.470,   1,1.0000,   0,1.0000,   0,1.0000,   0,1.0000,0, 1.0000
  654,'1 ',     1.400,     0.000,     1.000,     0.000,1.01307,    0,   100.000,   0.00000,   1.00000,   0.00000,   0.00000,1.00000,1,  100.0,     5.000,     1.330,   1,1.0000,   0,1.0000,   0,1.0000,   0,1.0000,0, 1.0000
  664,'1 ',     6.200,     0.000,     6.000,     0.000,0.99896,    0,   100.000,   0.00000,   1.00000,   0.00000,   0.00000,1.00000,1,  100.0,     6.200,     5.890,   1,1.0000,   0,1.0000,   0,1.0000,   0,1.0000,0, 1.0000
  670,'1 ',     2.700,     0.000,     2.000,     0.000,1.00461,    0,   100.000,   0.00000,   1.00000,   0.00000,   0.00000,1.00000,1,  100.0,     5.000,     2.570,   1,1.0000,   0,1.0000,   0,1.0000,   0,1.0000,0, 1.0000
  674,'1 ',     1.000,     0.000,     0.000,     0.000,0.99501,    0,   100.000,   0.00000,   1.00000,   0.00000,   0.00000,1.00000,1,  100.0,     5.000,     0.950,   1,1.0000,   0,1.0000,   0,1.0000,   0,1.0000,0, 1.0000
  688,'1 ',   202.000,     0.000,   120.000,     0.000,1.00701,    0,   100.000,   0.00000,   1.00000,   0.00000,   0.00000,1.00000,1,  100.0,   202.000,    70.000,   1,1.0000,   0,1.0000,   0,1.0000,   0,1.0000,0, 1.0000
  692,'1 ',     1.400,     1.000,     1.000,     0.000,0.99830,    0,   100.000,   0.00000,   1.00000,   0.00000,   0.00000,1.00000,1,  100.0,     5.000,     1.330,   1,1.0000,   0,1.0000,   0,1.0000,   0,1.0000,0, 1.0000
  699,'1 ',     3.800,     0.000,     2.000,     0.000,1.01015,    0,   100.000,   0.00000,   1.00000,   0.00000,   0.00000,1.00000,1,  100.0,     5.000,     3.610,   1,1.0000,   0,1.0000,   0,1.0000,   0,1.0000,0, 1.0000
  712,'1 ',     1.200,     0.000,     1.000,     0.000,0.99289,    0,   100.000,   0.00000,   1.00000,   0.00000,   0.00000,1.00000,1,  100.0,     5.000,     1.140,   1,1.0000,   0,1.0000,   0,1.0000,   0,1.0000,0, 1.0000
  730,'1 ',     6.900,     0.000,     3.000,     0.000,1.02850,    0,   100.000,   0.00000,   1.00000,   0.00000,   0.00000,1.00000,1,  100.0,     6.900,     6.560,   1,1.0000,   0,1.0000,   0,1.0000,   0,1.0000,0, 1.0000
  732,'1 ',     1.100,     0.000,     1.000,     0.000,1.00474,    0,   100.000,   0.00000,   1.00000,   0.00000,   0.00000,1.00000,1,  100.0,     5.000,     1.050,   1,1.0000,   0,1.0000,   0,1.0000,   0,1.0000,0, 1.0000
  735,'1 ',     4.100,     0.000,     2.000,     0.000,1.01301,    0,   100.000,   0.00000,   1.00000,   0.00000,   0.00000,1.00000,1,  100.0,     5.000,     3.900,   1,1.0000,   0,1.0000,   0,1.0000,   0,1.0000,0, 1.0000
  740,'1 ',     4.000,     0.000,     1.000,     0.000,1.03434,    0,   100.000,   0.00000,   1.00000,   0.00000,   0.00000,1.00000,1,  100.0,     5.000,     3.800,   1,1.0000,   0,1.0000,   0,1.0000,   0,1.0000,0, 1.0000
  744,'1 ',   134.000,     0.000,    60.000,     0.000,1.03932,    0,   100.000,   0.00000,   1.00000,   0.00000,   0.00000,1.00000,1,  100.0,   134.000,   127.300,   1,1.0000,   0,1.0000,   0,1.0000,   0,1.0000,0, 1.0000
  754,'1 ',    80.000,     0.000,    30.000,     0.000,1.01767,    0,   100.000,   0.00000,   1.00000,   0.00000,   0.00000,1.00000,1,  100.0,    80.000,    10.000,   1,1.0000,   0,1.0000,   0,1.0000,   0,1.0000,0, 1.0000
  755,'1 ',   220.000,     0.000,    80.000,     0.000,1.00035,    0,   100.000,   0.00000,   1.00000,   0.00000,   0.00000,1.00000,1,  100.0,   250.000,    85.000,   1,1.0000,   0,1.0000,   0,1.0000,   0,1.0000,0, 1.0000
  760,'1 ',     3.100,     0.000,     2.000,     0.000,0.99064,    0,   100.000,   0.00000,   1.00000,   0.00000,   0.00000,1.00000,1,  100.0,     5.000,     2.950,   1,1.0000,   0,1.0000,   0,1.0000,   0,1.0000,0, 1.0000
  766,'1 ',     2.100,     0.231,     1.000,     0.000,0.98601,    0,   100.000,   0.00000,   1.00000,   0.00000,   0.00000,1.00000,1,  100.0,     5.000,     2.000,   1,1.0000,   0,1.0000,   0,1.0000,   0,1.0000,0, 1.0000
  784,'1 ',     0.700,     0.000,     0.000,     0.000,1.00043,    0,   100.000,   0.00000,   1.00000,   0.00000,   0.00000,1.00000,1,  100.0,     5.000,     0.670,   1,1.0000,   0,1.0000,   0,1.0000,   0,1.0000,0, 1.0000
  790,'1 ',    49.800,    35.000,    35.000,    35.000,1.02075,    0,   100.000,   0.00000,   1.00000,   0.00000,   0.00000,1.00000,1,  100.0,    49.800,    47.310,   1,1.0000,   0,1.0000,   0,1.0000,   0,1.0000,0, 1.0000
  795,'1 ',     1.890,     1.000,     1.000,     1.000,0.98435,    0,   100.000,   0.00000,   1.00000,   0.00000,   0.00000,1.00000,1,  100.0,     5.000,     1.800,   1,1.0000,   0,1.0000,   0,1.0000,   0,1.0000,0, 1.0000
  798,'1 ',     2.990,     3.000,     3.000,     3.000,0.99850,    0,   100.000,   0.00000,   1.00000,   0.00000,   0.00000,1.00000,1,  100.0,     5.000,     2.840,   1,1.0000,   0,1.0000,   0,1.0000,   0,1.0000,0, 1.0000
...